Version 4
SHEET 1 5945676 13421556
WIRE 2176 -80 2016 -80
WIRE 2832 -80 2176 -80
WIRE 2016 -64 2016 -80
WIRE 2176 -16 2176 -80
WIRE 2832 -16 2832 -80
WIRE 2896 -16 2832 -16
WIRE 3040 -16 2960 -16
WIRE 3168 -16 3104 -16
WIRE 3344 -16 3168 -16
WIRE 3552 -16 3344 -16
WIRE 2832 0 2832 -16
WIRE 2896 0 2896 -16
WIRE 2960 0 2960 -16
WIRE 3168 0 3168 -16
WIRE 3344 0 3344 -16
WIRE 3552 0 3552 -16
WIRE 2016 32 2016 16
WIRE 2832 96 2832 80
WIRE 2896 96 2896 80
WIRE 2896 96 2832 96
WIRE 2960 96 2960 80
WIRE 3168 96 3168 64
WIRE 3168 96 2960 96
WIRE 3344 96 3344 64
WIRE 3344 96 3168 96
WIRE 3552 96 3552 80
WIRE 3552 96 3344 96
WIRE 3552 112 3552 96
WIRE 2176 144 2176 64
WIRE 2224 144 2176 144
WIRE 2320 144 2288 144
WIRE 2704 160 2704 144
WIRE 2832 160 2832 96
WIRE 2832 160 2704 160
WIRE 1776 208 1680 208
WIRE 1840 208 1776 208
WIRE 1968 208 1904 208
WIRE 2640 208 1968 208
WIRE 2896 208 2640 208
WIRE 1776 224 1776 208
WIRE 1968 224 1968 208
WIRE 2896 224 2896 208
WIRE 1680 240 1680 208
WIRE 2176 272 2176 144
WIRE 2400 272 2176 272
WIRE 2560 272 2400 272
WIRE 2640 272 2640 208
WIRE 2640 272 2624 272
WIRE 2400 288 2400 272
WIRE 1776 320 1776 288
WIRE 1968 320 1968 288
WIRE 2896 320 2896 304
WIRE 2176 336 2176 272
WIRE 2704 352 2704 160
WIRE 2400 384 2400 352
WIRE 1680 400 1680 320
WIRE 2016 400 1680 400
WIRE 2480 432 2336 432
WIRE 2656 432 2560 432
WIRE 1680 464 1680 400
WIRE 1744 464 1680 464
WIRE 1888 464 1824 464
WIRE 2016 464 1952 464
WIRE 1680 480 1680 464
WIRE 1872 528 1760 528
WIRE 2016 528 1872 528
WIRE 1760 544 1760 528
WIRE 1872 544 1872 528
WIRE 2400 560 2336 560
WIRE 2704 560 2704 448
WIRE 2704 560 2400 560
WIRE 1680 576 1680 560
WIRE 2704 576 2704 560
WIRE 2016 592 1968 592
WIRE 2400 592 2400 560
WIRE 1872 624 1872 608
WIRE 1760 656 1760 624
WIRE 1968 656 1968 592
WIRE 1968 656 1760 656
WIRE 1760 672 1760 656
WIRE 2400 672 2400 656
WIRE 2704 672 2704 656
WIRE 2176 704 2176 656
WIRE 1760 752 1760 736
FLAG 2704 672 0
FLAG 1760 752 0
FLAG 1872 624 0
FLAG 1680 576 0
FLAG 2176 704 0
FLAG 1776 320 0
FLAG 1968 320 0
FLAG 2400 384 0
FLAG 2896 320 0
FLAG 2016 32 0
FLAG 2320 144 0
FLAG 3552 -16 +20V
FLAG 3552 112 0
FLAG 2016 -80 IN
FLAG 2400 672 0
SYMBOL RES 2688 560 R0
SYMATTR InstName R1
SYMATTR Value 0.1
SYMBOL cap 1744 672 R0
SYMATTR InstName C1
SYMATTR Value 1.1n
SYMBOL cap 1856 544 R0
SYMATTR InstName C2
SYMATTR Value .1µ
SYMBOL res 1744 528 R0
SYMATTR InstName R3
SYMATTR Value 15k
SYMBOL res 1664 464 R0
SYMATTR InstName R4
SYMATTR Value 25k
SYMBOL NMOS 2656 352 R0
SYMATTR InstName Q1
SYMATTR Value Si7802DN
SYMBOL res 1664 224 R0
SYMATTR InstName R7
SYMATTR Value 150k
SYMBOL cap 1760 224 R0
SYMATTR InstName C4
SYMATTR Value .0022µ
SYMBOL cap 1952 224 R0
SYMATTR InstName C5
SYMATTR Value 100p
SYMBOL schottky 1904 192 R90
WINDOW 0 0 32 VBottom 2
WINDOW 3 32 32 VTop 2
SYMATTR InstName D1
SYMATTR Value BAT54
SYMBOL cap 2384 288 R0
SYMATTR InstName C6
SYMATTR Value 22µ
SYMBOL schottky 2624 256 R90
WINDOW 0 0 32 VBottom 2
WINDOW 3 32 32 VTop 2
SYMATTR InstName D2
SYMATTR Value BAT54
SYMBOL ind2 2976 -16 M0
WINDOW 0 1 32 Right 2
WINDOW 3 -1 70 Right 2
SYMATTR InstName L1
SYMATTR Value 20µ
SYMATTR SpiceLine Rser=0 Rpar=0
SYMBOL ind2 2880 208 R0
WINDOW 0 -4 44 Right 2
WINDOW 3 -6 73 Right 2
SYMATTR InstName L2
SYMATTR Value 32µ
SYMATTR Value2 Rser=.1
SYMBOL ind2 2880 96 M180
WINDOW 0 -2 87 Right 2
WINDOW 3 -3 43 Right 2
SYMATTR InstName L3
SYMATTR Value 20µ
SYMATTR SpiceLine Rser=0 Rpar=0
SYMBOL schottky 3040 -32 M90
WINDOW 0 0 32 VBottom 2
WINDOW 3 32 32 VTop 2
SYMATTR InstName D3
SYMATTR Value MBRS340
SYMBOL polcap 3328 0 R0
SYMATTR InstName C9
SYMATTR Value 500µ
SYMBOL VOLTAGE 2016 -80 R0
WINDOW 123 0 0 Left 0
WINDOW 39 0 0 Left 0
SYMATTR InstName V1
SYMATTR Value 40
SYMBOL zener 2288 160 M270
WINDOW 0 36 32 VTop 2
WINDOW 3 -4 32 VBottom 2
SYMATTR InstName D4
SYMATTR Value BZX84C15L
SYMBOL res 2160 -32 R0
SYMATTR InstName R13
SYMATTR Value 300k
SYMBOL res 3536 -16 R0
SYMATTR InstName Rload
SYMATTR Value 2.4
SYMBOL cap 2384 592 R0
SYMATTR InstName C10
SYMATTR Value 10n
SYMBOL PowerProducts\\LT1243 2176 496 R0
SYMATTR InstName U2
SYMBOL res 1840 448 R90
WINDOW 0 0 56 VBottom 2
WINDOW 3 32 56 VTop 2
SYMATTR InstName R2
SYMATTR Value 200k
SYMBOL cap 1952 448 R90
WINDOW 0 0 32 VBottom 2
WINDOW 3 32 32 VTop 2
SYMATTR InstName C3
SYMATTR Value 0.1µ
SYMBOL res 2576 416 R90
WINDOW 0 0 56 VBottom 2
WINDOW 3 32 56 VTop 2
SYMATTR InstName R5
SYMATTR Value 12
TEXT 3112 264 Left 2 !.tran 12m
TEXT 2936 -24 Bottom 2 !K1 L1 L2 L3 1
LINE Normal 2928 304 2928 0 2
