Version 4
SHEET 1 2556 1332
WIRE 1008 -144 0 -144
WIRE 1152 -144 1088 -144
WIRE 1344 -144 1232 -144
WIRE 1344 -32 1344 -144
WIRE 1600 0 1488 0
WIRE 1728 0 1680 0
WIRE 1888 0 1808 0
WIRE 2016 0 1952 0
WIRE 2144 0 2016 0
WIRE 2016 16 2016 0
WIRE 0 80 0 -144
WIRE 1488 96 1488 80
WIRE 1776 96 1488 96
WIRE 2016 96 2016 80
WIRE 2016 96 1776 96
WIRE 2144 96 2144 80
WIRE 2144 96 2016 96
WIRE 1776 144 1776 96
WIRE -224 176 -224 144
WIRE 0 272 0 160
WIRE 240 304 240 288
WIRE 240 304 128 304
WIRE 240 336 240 304
WIRE 128 352 128 304
WIRE 1344 384 1344 48
WIRE 1344 384 1296 384
WIRE 240 432 240 416
WIRE 576 432 240 432
WIRE 800 448 800 288
WIRE 1296 496 1296 384
WIRE 576 512 576 432
WIRE 640 512 576 512
WIRE 1104 544 960 544
WIRE 1232 544 1184 544
WIRE 1232 576 1232 544
WIRE 1248 576 1232 576
WIRE 240 624 240 432
WIRE 1296 624 1296 592
WIRE 1296 624 1232 624
WIRE 496 640 368 640
WIRE 640 640 496 640
WIRE 1056 672 960 672
WIRE 1152 672 1056 672
WIRE 1232 672 1232 624
WIRE 368 704 368 640
WIRE 640 704 592 704
WIRE 592 720 592 704
WIRE 592 720 496 720
WIRE 240 752 240 704
WIRE 496 768 496 720
WIRE 1296 768 1296 704
WIRE 496 848 496 832
WIRE 800 848 800 768
WIRE 800 848 496 848
WIRE 368 896 368 768
WIRE 800 896 800 848
WIRE 800 896 368 896
WIRE 800 1056 800 896
FLAG -224 176 0
FLAG -224 64 signal
FLAG 1776 144 0
FLAG -896 192 0
FLAG -896 112 Vreg
FLAG 800 288 Vreg
FLAG 800 1056 0
FLAG 2144 0 Vout
FLAG 240 288 Vout
FLAG 240 752 0
FLAG 0 272 0
FLAG 1296 768 0
FLAG 128 416 0
FLAG 1056 736 0
SYMBOL voltage 0 64 R0
WINDOW 123 0 0 Left 0
WINDOW 39 0 0 Left 0
SYMATTR InstName V1
SYMATTR Value 20
SYMBOL nmos 1248 496 R0
SYMATTR InstName M1
SYMATTR Value IRFZ48N
SYMBOL ind2 1360 64 R180
WINDOW 0 43 72 Left 2
WINDOW 3 26 31 Left 2
SYMATTR InstName L1
SYMATTR Value 30µ
SYMATTR Type ind
SYMATTR SpiceLine2 IC=0
SYMBOL ind2 1472 -16 R0
SYMATTR InstName L3
SYMATTR Value 7.5µ
SYMATTR Type ind
SYMBOL voltage -224 48 R0
WINDOW 3 -565 93 Left 2
WINDOW 123 0 0 Left 0
WINDOW 39 0 0 Left 0
SYMATTR Value PULSE(0 15 0 200ns 200ns 3.75us 10us)
SYMATTR InstName V2
SYMBOL cap 2000 16 R0
SYMATTR InstName C1
SYMATTR Value 100µ
SYMATTR SpiceLine2 IC=12
SYMBOL res 2128 -16 R0
SYMATTR InstName R3
SYMATTR Value 2.4
SYMBOL schottky 1888 16 R270
WINDOW 0 32 32 VTop 2
WINDOW 3 0 32 VBottom 2
SYMATTR InstName D1
SYMATTR Value 1N5819
SYMATTR Description Diode
SYMATTR Type diode
SYMBOL PowerProducts\\LT1243 800 608 R0
SYMATTR InstName U1
SYMBOL voltage -896 96 R0
WINDOW 123 0 0 Left 0
WINDOW 39 0 0 Left 0
SYMATTR InstName V3
SYMATTR Value 15
SYMBOL res 480 624 R0
SYMATTR InstName R1
SYMATTR Value 13k
SYMBOL cap 480 768 R0
SYMATTR InstName C3
SYMATTR Value 1.1n
SYMBOL cap 352 704 R0
SYMATTR InstName C4
SYMATTR Value 1µ
SYMBOL res 224 320 R0
SYMATTR InstName R4
SYMATTR Value 95k
SYMBOL res 224 608 R0
SYMATTR InstName R5
SYMATTR Value 25k
SYMBOL res 1200 528 R90
WINDOW 0 0 56 VBottom 2
WINDOW 3 32 56 VTop 2
SYMATTR InstName R2
SYMATTR Value 5
SYMBOL res 1280 608 R0
SYMATTR InstName R6
SYMATTR Value 0.15
SYMBOL cap 112 352 R0
SYMATTR InstName C2
SYMATTR Value 1µ
SYMBOL cap 1040 672 R0
SYMATTR InstName C5
SYMATTR Value 10n
SYMBOL res 1248 656 R90
WINDOW 0 0 56 VBottom 2
WINDOW 3 32 56 VTop 2
SYMATTR InstName R7
SYMATTR Value 1k
SYMBOL res 1104 -160 R90
WINDOW 0 0 56 VBottom 2
WINDOW 3 32 56 VTop 2
SYMATTR InstName R8
SYMATTR Value 0.003
SYMBOL res 1824 -16 R90
WINDOW 0 0 56 VBottom 2
WINDOW 3 32 56 VTop 2
SYMATTR InstName R9
SYMATTR Value 7.5202e-04
SYMBOL ind 1136 -128 R270
WINDOW 0 32 56 VTop 2
WINDOW 3 5 56 VBottom 2
SYMATTR InstName L2
SYMATTR Value 210n
SYMBOL ind 1584 16 R270
WINDOW 0 32 56 VTop 2
WINDOW 3 5 56 VBottom 2
SYMATTR InstName L4
SYMATTR Value 210n
TEXT 1608 312 Left 2 !K1 L1 L3 1
TEXT -930 1080 Left 2 !.tran 0 0.5ms 0
