Version 4
SHEET 1 5945676 13421556
WIRE 2176 -80 2016 -80
WIRE 2832 -80 2176 -80
WIRE 2016 -64 2016 -80
WIRE 2176 -16 2176 -80
WIRE 2832 -16 2832 -80
WIRE 2896 -16 2832 -16
WIRE 3040 -16 2960 -16
WIRE 3216 -16 3104 -16
WIRE 3824 -16 3216 -16
WIRE 3872 -16 3824 -16
WIRE 2896 0 2896 -16
WIRE 2960 0 2960 -16
WIRE 2016 32 2016 16
WIRE 3824 48 3824 -16
WIRE 3216 64 3216 -16
WIRE 2896 96 2896 80
WIRE 2896 96 2752 96
WIRE 2176 112 2176 64
WIRE 2256 112 2176 112
WIRE 2368 112 2336 112
WIRE 2176 208 2176 112
WIRE 2352 208 2176 208
WIRE 2480 208 2352 208
WIRE 2896 208 2544 208
WIRE 2960 208 2960 80
WIRE 3216 208 3216 128
WIRE 3216 208 2960 208
WIRE 3824 208 3824 128
WIRE 3824 208 3216 208
WIRE 3872 208 3824 208
WIRE 2176 224 2176 208
WIRE 2176 224 2128 224
WIRE 2352 224 2352 208
WIRE 2896 224 2896 208
WIRE 3824 224 3824 208
WIRE 3824 320 3824 304
WIRE 2352 336 2352 288
WIRE 2896 416 2896 304
WIRE 2176 432 2176 224
WIRE 2752 448 2752 96
WIRE 3472 464 3472 432
WIRE 3520 464 3472 464
WIRE 3584 464 3520 464
WIRE 3584 480 3584 464
WIRE 1840 496 1744 496
WIRE 2016 496 1840 496
WIRE 2480 528 2336 528
WIRE 2704 528 2560 528
WIRE 3328 544 3328 528
WIRE 3344 544 3328 544
WIRE 3456 544 3424 544
WIRE 3520 544 3456 544
WIRE 1840 560 1840 496
WIRE 1872 560 1840 560
WIRE 2016 560 1952 560
WIRE 3328 576 3328 544
WIRE 3456 592 3456 544
WIRE 3456 592 3360 592
WIRE 3120 608 3072 608
WIRE 3136 608 3120 608
WIRE 3296 608 3216 608
WIRE 4144 608 4144 592
WIRE 4176 608 4144 608
WIRE 4272 608 4256 608
WIRE 4288 608 4272 608
WIRE 4400 608 4368 608
WIRE 1760 624 1728 624
WIRE 1872 624 1760 624
WIRE 2016 624 1872 624
WIRE 3120 624 3120 608
WIRE 3456 624 3360 624
WIRE 3584 624 3584 560
WIRE 3584 624 3536 624
WIRE 1760 640 1760 624
WIRE 1872 640 1872 624
WIRE 2512 656 2336 656
WIRE 2544 656 2512 656
WIRE 2672 656 2624 656
WIRE 2672 672 2672 656
WIRE 2752 672 2752 544
WIRE 3584 672 3584 624
WIRE 2016 688 1968 688
WIRE 4272 688 4272 608
WIRE 4288 688 4272 688
WIRE 4512 688 4352 688
WIRE 3120 704 3120 688
WIRE 3328 704 3328 640
WIRE 4144 704 4144 608
WIRE 1872 720 1872 704
WIRE 2512 720 2512 656
WIRE 3792 720 3728 720
WIRE 4272 720 4272 688
WIRE 4272 720 4176 720
WIRE 3952 736 3952 720
WIRE 4112 736 3952 736
WIRE 1760 752 1760 720
WIRE 1968 752 1968 688
WIRE 1968 752 1760 752
WIRE 4400 752 4176 752
WIRE 1760 768 1760 752
WIRE 2672 768 2672 752
WIRE 2752 768 2752 752
WIRE 2176 800 2176 752
WIRE 2512 816 2512 800
WIRE 3584 816 3584 768
WIRE 3792 816 3792 800
WIRE 4144 832 4144 768
WIRE 4176 832 4144 832
WIRE 4272 832 4256 832
WIRE 4304 832 4272 832
WIRE 4400 832 4400 752
WIRE 4400 832 4384 832
WIRE 4512 832 4512 688
WIRE 4512 832 4480 832
WIRE 4544 832 4512 832
WIRE 1760 848 1760 832
WIRE 4144 848 4144 832
WIRE 3152 864 3152 832
WIRE 3952 864 3952 816
WIRE 4272 928 4272 832
WIRE 4368 928 4272 928
WIRE 4512 928 4512 832
WIRE 4512 928 4432 928
WIRE 3152 960 3152 944
FLAG 2752 768 0
FLAG 1760 848 0
FLAG 1872 720 0
FLAG 2176 800 0
FLAG 2896 416 0
FLAG 2016 32 0
FLAG 3872 -16 Vout+
FLAG 2016 -80 IN
FLAG 2368 112 0
FLAG 2352 336 0
FLAG 3824 320 0
FLAG 2672 768 0
FLAG 2512 816 0
FLAG 2432 800 0
FLAG 3872 208 Vout-
FLAG 4144 592 Vout-
FLAG 4144 848 Vout+
FLAG 4400 608 Vout+
FLAG 4544 832 Vout-
FLAG 3792 816 0
FLAG 3952 720 shutdown_signal_2
FLAG 3952 864 Vout-
FLAG 3584 816 0
FLAG 1744 496 Vfb
FLAG 3328 528 0
FLAG 2128 224 Vcc
FLAG 3152 960 0
FLAG 3152 832 5V
FLAG 3072 608 Vfb
FLAG 3120 704 0
FLAG 1728 624 Vref
FLAG 3328 704 5V
FLAG 3472 432 5V
SYMBOL RES 2736 656 R0
SYMATTR InstName R_acs712
SYMATTR Value 0.0012
SYMBOL cap 1744 768 R0
SYMATTR InstName C1
SYMATTR Value 1.1n
SYMBOL cap 1856 640 R0
SYMATTR InstName C2
SYMATTR Value 100n
SYMBOL res 1744 624 R0
SYMATTR InstName R3
SYMATTR Value 15k
SYMBOL NMOS 2704 448 R0
SYMATTR InstName Q1
SYMATTR Value IRFZ48N
SYMBOL schottky 2544 192 R90
WINDOW 0 0 32 VBottom 2
WINDOW 3 32 32 VTop 2
SYMATTR InstName D2
SYMATTR Value BAT54
SYMBOL ind2 2976 -16 M0
WINDOW 0 1 32 Right 2
WINDOW 3 -1 70 Right 2
SYMATTR InstName L1
SYMATTR Value 20.94µ
SYMATTR SpiceLine Rser=0 Rpar=0
SYMBOL ind2 2880 208 R0
WINDOW 0 -4 44 Right 2
WINDOW 3 -6 73 Right 2
SYMATTR InstName L2
SYMATTR Value 20.94µ
SYMATTR Value2 Rser=.1
SYMBOL ind2 2880 96 M180
WINDOW 0 -2 87 Right 2
WINDOW 3 -3 43 Right 2
SYMATTR InstName L3
SYMATTR Value 20.94µ
SYMATTR SpiceLine Rser=0 Rpar=0
SYMBOL schottky 3040 -32 M90
WINDOW 0 0 32 VBottom 2
WINDOW 3 32 32 VTop 2
SYMATTR InstName D3
SYMATTR Value MBRS340
SYMBOL VOLTAGE 2016 -80 R0
WINDOW 123 0 0 Left 0
WINDOW 39 0 0 Left 0
SYMATTR InstName V1
SYMATTR Value 20
SYMBOL res 2160 -32 R0
SYMATTR InstName R13
SYMATTR Value 10k
SYMBOL res 3808 32 R0
SYMATTR InstName Rload
SYMATTR Value 2.4
SYMBOL PowerProducts\\LT1243 2176 592 R0
SYMATTR InstName U2
SYMBOL res 1968 544 R90
WINDOW 0 0 56 VBottom 2
WINDOW 3 32 56 VTop 2
SYMATTR InstName R2
SYMATTR Value 100k
SYMBOL res 2576 512 R90
WINDOW 0 0 56 VBottom 2
WINDOW 3 32 56 VTop 2
SYMATTR InstName R5
SYMATTR Value 12
SYMBOL res 2352 96 R90
WINDOW 0 0 56 VBottom 2
WINDOW 3 32 56 VTop 2
SYMATTR InstName R6
SYMATTR Value 10k
SYMBOL cap 2336 224 R0
SYMATTR InstName C7
SYMATTR Value 2.2µF
SYMATTR SpiceLine IC=8.5
SYMBOL cap 3200 64 R0
SYMATTR InstName C8
SYMATTR Value 47µ
SYMATTR SpiceLine IC=12
SYMBOL res 3808 208 R0
SYMATTR InstName R8
SYMATTR Value 50k
SYMBOL res 2640 640 R90
WINDOW 0 0 56 VBottom 2
WINDOW 3 32 56 VTop 2
SYMATTR InstName R1
SYMATTR Value 3.5k
SYMBOL bv 2672 656 R0
WINDOW 3 -199 257 Left 2
SYMATTR InstName B1
SYMATTR Value V=2.5+0.083*I(R_acs712)
SYMBOL res 2496 704 R0
SYMATTR InstName R10
SYMATTR Value 1.5k
SYMBOL zener 4432 912 R90
WINDOW 0 -4 32 VBottom 2
WINDOW 3 36 32 VTop 2
SYMATTR InstName D1
SYMATTR Value 1N750
SYMBOL res 4272 816 R90
WINDOW 0 0 56 VBottom 2
WINDOW 3 32 56 VTop 2
SYMATTR InstName R7
SYMATTR Value 5k
SYMBOL res 4400 816 R90
WINDOW 0 0 56 VBottom 2
WINDOW 3 32 56 VTop 2
SYMATTR InstName R9
SYMATTR Value 5k
SYMBOL res 4496 816 R90
WINDOW 0 0 56 VBottom 2
WINDOW 3 32 56 VTop 2
SYMATTR InstName R11
SYMATTR Value 10k
SYMBOL res 4384 592 R90
WINDOW 0 0 56 VBottom 2
WINDOW 3 32 56 VTop 2
SYMATTR InstName Rd2
SYMATTR Value 7.5k
SYMBOL res 4272 592 R90
WINDOW 0 0 56 VBottom 2
WINDOW 3 32 56 VTop 2
SYMATTR InstName Rd1
SYMATTR Value 2.5k
SYMBOL OpAmps\\UniversalOpAmp2 4144 736 R180
SYMATTR InstName U1
SYMBOL res 3936 720 R0
SYMATTR InstName Rfb_out
SYMATTR Value 10k
SYMBOL bv 3792 704 R0
WINDOW 3 77 -173 VRight 2
SYMATTR InstName B2
SYMATTR Value V=V(shutdown_signal_2)-V(Vout-)
SYMBOL npn 3648 672 M0
SYMATTR InstName Q2
SYMATTR Value BC547C
SYMBOL res 3744 704 R90
WINDOW 0 0 56 VBottom 2
WINDOW 3 32 56 VTop 2
SYMATTR InstName R4
SYMATTR Value 3.3k
SYMBOL res 3568 464 R0
SYMATTR InstName R15
SYMATTR Value 10k
SYMBOL cap 4352 672 R90
WINDOW 0 0 32 VBottom 2
WINDOW 3 32 32 VTop 2
SYMATTR InstName C3
SYMATTR Value 0.5n
SYMBOL OpAmps\\UniversalOpAmp2 3328 608 R180
SYMATTR InstName U3
SYMBOL res 3552 608 R90
WINDOW 0 0 56 VBottom 2
WINDOW 3 32 56 VTop 2
SYMATTR InstName R16
SYMATTR Value 50k
SYMBOL res 3536 560 R180
WINDOW 0 36 76 Left 2
WINDOW 3 36 40 Left 2
SYMATTR InstName R18
SYMATTR Value 25k
SYMBOL res 3440 528 R90
WINDOW 0 0 56 VBottom 2
WINDOW 3 32 56 VTop 2
SYMATTR InstName R19
SYMATTR Value 25k
SYMBOL voltage 3152 848 R0
WINDOW 123 0 0 Left 0
WINDOW 39 0 0 Left 0
SYMATTR InstName V2
SYMATTR Value 5
SYMBOL res 3232 592 R90
WINDOW 0 0 56 VBottom 2
WINDOW 3 32 56 VTop 2
SYMATTR InstName R17
SYMATTR Value 20k
SYMBOL cap 3104 624 R0
SYMATTR InstName C5
SYMATTR Value 1n
TEXT 2936 -24 Bottom 2 !K1 L1 L2 L3 0.99
TEXT 1660 872 Left 2 !.tran 1.5m
TEXT 4184 760 Left 1 ;Output Voltage Reference\n(max 3V, 2.1V saturation)
TEXT 4320 992 Left 2 ;5V limiting zenner\n(pick 4.7V)
TEXT 4168 552 Left 2 ;Vout = 3*(Rd1+Rd2) / Rd1
LINE Normal 2928 400 2928 0 2
