Version 4
SHEET 1 5945676 13421556
WIRE 4064 -384 4064 -400
WIRE 4064 -288 4064 -304
WIRE 4384 -208 4384 -224
WIRE 4064 -176 4064 -224
WIRE 2176 -80 2016 -80
WIRE 2832 -80 2176 -80
WIRE 2016 -64 2016 -80
WIRE 2176 -16 2176 -80
WIRE 2832 -16 2832 -80
WIRE 2896 -16 2832 -16
WIRE 3040 -16 2960 -16
WIRE 3216 -16 3104 -16
WIRE 3552 -16 3216 -16
WIRE 2896 0 2896 -16
WIRE 2960 0 2960 -16
WIRE 3552 0 3552 -16
WIRE 2016 32 2016 16
WIRE 3216 64 3216 -16
WIRE 2896 96 2896 80
WIRE 2896 96 2832 96
WIRE 2176 112 2176 64
WIRE 2256 112 2176 112
WIRE 2368 112 2336 112
WIRE 2832 160 2832 96
WIRE 2832 160 2704 160
WIRE 1824 208 1680 208
WIRE 1936 208 1824 208
WIRE 2048 208 1936 208
WIRE 2544 208 2112 208
WIRE 2896 208 2544 208
WIRE 2960 208 2960 80
WIRE 3216 208 3216 128
WIRE 3216 208 2960 208
WIRE 3552 208 3552 80
WIRE 3552 208 3216 208
WIRE 1824 224 1824 208
WIRE 1936 224 1936 208
WIRE 2896 224 2896 208
WIRE 3552 224 3552 208
WIRE 1680 240 1680 208
WIRE 2176 272 2176 112
WIRE 2240 272 2176 272
WIRE 2352 272 2240 272
WIRE 2480 272 2352 272
WIRE 2544 272 2544 208
WIRE 2240 288 2240 272
WIRE 2352 288 2352 272
WIRE 3552 320 3552 304
WIRE 1824 336 1824 288
WIRE 1936 336 1936 288
WIRE 2240 400 2240 352
WIRE 2352 400 2352 352
WIRE 2896 416 2896 304
WIRE 2176 432 2176 272
WIRE 2704 448 2704 160
WIRE 1680 496 1680 320
WIRE 2016 496 1680 496
WIRE 2480 528 2336 528
WIRE 2656 528 2560 528
WIRE 1680 560 1680 496
WIRE 1744 560 1680 560
WIRE 1888 560 1824 560
WIRE 2016 560 1952 560
WIRE 1680 576 1680 560
WIRE 1872 624 1760 624
WIRE 2016 624 1872 624
WIRE 1760 640 1760 624
WIRE 1872 640 1872 624
WIRE 2400 656 2336 656
WIRE 2704 656 2704 544
WIRE 2704 656 2400 656
WIRE 1680 672 1680 656
WIRE 2704 672 2704 656
WIRE 2016 688 1968 688
WIRE 2400 688 2400 656
WIRE 1872 720 1872 704
WIRE 1760 752 1760 720
WIRE 1968 752 1968 688
WIRE 1968 752 1760 752
WIRE 1760 768 1760 752
WIRE 2400 768 2400 752
WIRE 2704 768 2704 752
WIRE 2176 800 2176 752
WIRE 1760 848 1760 832
FLAG 2704 768 0
FLAG 1760 848 0
FLAG 1872 720 0
FLAG 1680 672 0
FLAG 2176 800 0
FLAG 1824 336 0
FLAG 1936 336 0
FLAG 2896 416 0
FLAG 2016 32 0
FLAG 3552 -16 +20V
FLAG 2016 -80 IN
FLAG 2400 768 0
FLAG 2368 112 0
FLAG 2240 400 0
FLAG 2352 400 0
FLAG 3552 320 0
FLAG 4384 -208 0
FLAG 4064 -176 0
FLAG 4064 -400 0
DATAFLAG 2800 208 ""
SYMBOL RES 2688 656 R0
SYMATTR InstName R1
SYMATTR Value 0.1
SYMBOL cap 1744 768 R0
SYMATTR InstName C1
SYMATTR Value 1.1n
SYMBOL cap 1856 640 R0
SYMATTR InstName C2
SYMATTR Value .1µ
SYMBOL res 1744 624 R0
SYMATTR InstName R3
SYMATTR Value 15k
SYMBOL res 1664 560 R0
SYMATTR InstName R4
SYMATTR Value 25k
SYMBOL NMOS 2656 448 R0
SYMATTR InstName Q1
SYMATTR Value Si7802DN
SYMBOL res 1664 224 R0
SYMATTR InstName R7
SYMATTR Value 150k
SYMBOL cap 1808 224 R0
SYMATTR InstName C5
SYMATTR Value 100n
SYMATTR SpiceLine IC=0
SYMBOL cap 1920 224 R0
SYMATTR InstName C6
SYMATTR Value 0.22µF
SYMBOL schottky 2544 256 R90
WINDOW 0 0 32 VBottom 2
WINDOW 3 32 32 VTop 2
SYMATTR InstName D2
SYMATTR Value BAT54
SYMBOL ind2 2976 -16 M0
WINDOW 0 1 32 Right 2
WINDOW 3 -1 70 Right 2
SYMATTR InstName L1
SYMATTR Value 20.94µ
SYMATTR SpiceLine Rser=0 Rpar=0
SYMBOL ind2 2880 208 R0
WINDOW 0 -4 44 Right 2
WINDOW 3 -6 73 Right 2
SYMATTR InstName L2
SYMATTR Value 20.94µ
SYMATTR Value2 Rser=.1
SYMBOL ind2 2880 96 M180
WINDOW 0 -2 87 Right 2
WINDOW 3 -3 43 Right 2
SYMATTR InstName L3
SYMATTR Value 20.94µ
SYMATTR SpiceLine Rser=0 Rpar=0
SYMBOL schottky 3040 -32 M90
WINDOW 0 0 32 VBottom 2
WINDOW 3 32 32 VTop 2
SYMATTR InstName D3
SYMATTR Value MBRS340
SYMBOL polcap 4048 -288 R0
SYMATTR InstName C9
SYMATTR Value {Cout}
SYMBOL VOLTAGE 2016 -80 R0
WINDOW 123 0 0 Left 0
WINDOW 39 0 0 Left 0
SYMATTR InstName V1
SYMATTR Value 20
SYMBOL res 2160 -32 R0
SYMATTR InstName R13
SYMATTR Value 10k
SYMBOL res 3536 -16 R0
SYMATTR InstName Rload
SYMATTR Value 2.4
SYMBOL cap 2384 688 R0
SYMATTR InstName C10
SYMATTR Value 10n
SYMBOL PowerProducts\\LT1243 2176 592 R0
SYMATTR InstName U2
SYMBOL res 1840 544 R90
WINDOW 0 0 56 VBottom 2
WINDOW 3 32 56 VTop 2
SYMATTR InstName R2
SYMATTR Value 200k
SYMBOL cap 1952 544 R90
WINDOW 0 0 32 VBottom 2
WINDOW 3 32 32 VTop 2
SYMATTR InstName C3
SYMATTR Value 0.1µ
SYMBOL res 2576 512 R90
WINDOW 0 0 56 VBottom 2
WINDOW 3 32 56 VTop 2
SYMATTR InstName R5
SYMATTR Value 12
SYMBOL res 2352 96 R90
WINDOW 0 0 56 VBottom 2
WINDOW 3 32 56 VTop 2
SYMATTR InstName R6
SYMATTR Value 10k
SYMBOL zener 4400 -224 R180
WINDOW 0 46 45 Left 2
WINDOW 3 24 0 Left 2
SYMATTR InstName D1
SYMATTR Value EDZV15B
SYMBOL cap 2224 288 R0
SYMATTR InstName C4
SYMATTR Value 100p
SYMATTR SpiceLine IC=0
SYMBOL cap 2336 288 R0
SYMATTR InstName C7
SYMATTR Value 2.2µF
SYMBOL schottky 2112 192 R90
WINDOW 0 0 32 VBottom 2
WINDOW 3 32 32 VTop 2
SYMATTR InstName D4
SYMATTR Value BAT54
SYMBOL res 4048 -400 R0
SYMATTR InstName R9
SYMATTR Value {Rcout}
SYMBOL cap 3200 64 R0
SYMATTR InstName C8
SYMATTR Value 500µ
SYMBOL res 3536 208 R0
SYMATTR InstName R8
SYMATTR Value 100k
TEXT 2936 -24 Bottom 2 !K1 L1 L2 L3 0.99
TEXT 3304 -272 Left 2 !.param Cout=500u
TEXT 3304 -240 Left 2 !.param Rcout={0.064+3/(1+(Cout/0.00001534)**1.474)}
LINE Normal 2928 400 2928 0 2
