Version 4
SHEET 1 1816 1048
WIRE -976 -416 -976 -480
WIRE -976 -416 -1520 -416
WIRE -1520 -400 -1520 -416
WIRE -976 -304 -976 -416
WIRE -976 -304 -1376 -304
WIRE -1520 -240 -1520 -320
WIRE -976 -208 -976 -304
WIRE -752 -208 -752 -224
WIRE -1136 -144 -1344 -144
WIRE -752 -112 -816 -112
WIRE -1136 -80 -1184 -80
WIRE -1520 -48 -1520 -160
WIRE -1344 -48 -1344 -144
WIRE -1344 -48 -1520 -48
WIRE -1520 -32 -1520 -48
WIRE -1248 -32 -1312 -32
WIRE -1216 -32 -1248 -32
WIRE -1216 -16 -1216 -32
WIRE -1136 -16 -1216 -16
WIRE -784 16 -816 16
WIRE -1376 48 -1376 -304
WIRE -1312 48 -1312 -32
WIRE -1136 48 -1248 48
WIRE -784 64 -784 16
WIRE -624 64 -784 64
WIRE -1520 80 -1520 48
WIRE -1248 96 -1248 48
WIRE -624 112 -624 64
WIRE -976 160 -976 112
WIRE -976 160 -1248 160
WIRE -1520 192 -1520 160
WIRE -1376 192 -1376 112
WIRE -1376 192 -1520 192
WIRE -1312 192 -1312 112
WIRE -1312 192 -1376 192
WIRE -976 192 -976 160
WIRE -976 192 -1312 192
WIRE -976 224 -976 192
FLAG -752 -208 0
FLAG -752 -304 Vreg
FLAG -976 -480 Vreg
FLAG -976 224 0
FLAG -624 192 0
SYMBOL PowerProducts\\LT1243 -976 -48 R0
SYMATTR InstName U4
SYMBOL voltage -752 -320 R0
WINDOW 123 0 0 Left 0
WINDOW 39 0 0 Left 0
SYMATTR InstName V2
SYMATTR Value 15
SYMBOL cap -1264 96 R0
SYMATTR InstName C1
SYMATTR Value 2.2n
SYMBOL res -1264 -48 R0
SYMATTR InstName R1
SYMATTR Value 8.2k
SYMBOL res -1536 -416 R0
SYMATTR InstName R2
SYMATTR Value 5k
SYMBOL res -1536 -256 R0
SYMATTR InstName R3
SYMATTR Value 25k
SYMBOL res -1536 -48 R0
SYMATTR InstName R4
SYMATTR Value 1k
SYMBOL res -1536 64 R0
SYMATTR InstName R5
SYMATTR Value 4k
SYMBOL cap -1328 48 R0
SYMATTR InstName C2
SYMATTR Value 1µ
SYMBOL cap -1392 48 R0
SYMATTR InstName C3
SYMATTR Value 1µ
SYMBOL voltage -624 96 R0
WINDOW 123 0 0 Left 0
WINDOW 39 0 0 Left 0
SYMATTR InstName V1
SYMATTR Value 1
TEXT -1632 264 Left 2 !.tran 0.001
